3
 energy: -5.070544172184 gnorm: 0.000672099890 xtb: 6.6.1 (8d0f1dd)
O            0.00000000000000       -0.00000000022960        0.10479600998017
H            0.00000000000000        0.77238110210835       -0.46466400507958
H           -0.00000000000000       -0.77238110187875       -0.46466400490059
