14
 energy: -13.664173451030 gnorm: 0.000145390360 xtb: 6.6.1 (8d0f1dd)
C           -1.60531390918748       -0.03112078357454       -0.42207677720980
C           -0.49532986506359       -0.82397677717237        0.25799188993789
C            0.90346499681140       -0.43136489583982       -0.21849876116177
C            1.29386731809873        0.98906793671381        0.17282613144572
H           -1.52985369294153       -0.12209519348708       -1.50373603721924
H           -2.57941994318493       -0.40479328434897       -0.11408527226326
H           -1.54983570986620        1.02212790376993       -0.15993579339915
H           -0.55923487243308       -0.68222385116726        1.33945730461669
H           -0.64615082993224       -1.88727627721820        0.05532040034731
H            1.62639607691912       -1.12776122338101        0.21374114216299
H            0.95495128894063       -0.53492032111127       -1.30494738819626
H            2.32424045275199        1.18967414127590       -0.11258731555867
H            1.20357803419596        1.12565363268933        1.24853498489708
H            0.65864066489123        1.71900899285155       -0.32194823839953
