6
 energy: -11.736298311305 gnorm: 0.000247944781 xtb: 6.6.1 (8d0f1dd)
C           -0.13727932850334       -0.03817416479537        1.45999476695352
H            0.08712365112102        0.87815476192427        2.01876262747555
H           -1.38912972982133       -0.00156145099813        1.46055605060753
H            0.03288980487081       -0.97349130839727        2.00631559656738
Br          -3.13248072534782        0.04782930704643        1.66503939263476
Cl           0.39083620768067       -0.04281889477994       -0.12817422423878
