14
 energy: -13.664173452554 gnorm: 0.000145364751 xtb: 6.6.1 (8d0f1dd)
C            1.48966922531573        0.13126454872027        0.68645032765795
C            0.32713157274542       -0.83197689402691        0.47704462441505
C           -0.55880171554432       -0.45671871838815       -0.71128109623258
C           -1.31288249483156        0.85213484923212       -0.50770523551973
H            2.13576953894904       -0.22483223331630        1.48590134379571
H            2.08284325288522        0.21467553576703       -0.22192432719727
H            1.13254127595891        1.12136185793935        0.95718164069237
H            0.72618186622792       -1.83563994719089        0.31016788506682
H           -0.28271222352079       -0.86611543093020        1.38295314950885
H           -1.28260001286339       -1.25950909295008       -0.87274980254529
H            0.05809196117831       -0.38336438340291       -1.61006165258493
H           -1.89764010353226        0.81554043532747        0.40917900324978
H           -1.99092142448892        1.03056967121116       -1.33944840108524
H           -0.62667069847930        1.69260980200804       -0.44570746922150
