14
 energy: -13.665127753846 gnorm: 0.000039817845 xtb: 6.6.1 (8d0f1dd)
C           -1.89245910129393        0.06503456268109       -0.43361658282173
C           -0.39767349996912        0.33174355488931       -0.56088394355700
C            0.39767341472402       -0.33174285209098        0.56088445443156
C            1.89245916084865       -0.06503507646478        0.43361622431930
H           -2.26937567937265        0.44942542634250        0.51190695467708
H           -2.09389296275131       -1.00351489206434       -0.47187441893329
H           -2.43861429764579        0.54625810979952       -1.24175336514094
H           -0.04265828363357       -0.04353503999055       -1.52363149583423
H           -0.21812527968104        1.40927607636068       -0.53993686536410
H            0.21812437368024       -1.40927525041885        0.53993801560480
H            0.04265892900123        0.04353651266461        1.52363197791738
H            2.26937496639126       -0.44942684220857       -0.51190725357780
H            2.09389387587238        1.00351424654054        0.47187325952700
H            2.43861438382964       -0.54625854604019        1.24175303875198
