14
PySCF r2scan/def2-TZVPP  E=-158.4048191724 Eh
C  -1.9379663106 0.1336687164 -0.0000653908
C  -0.5607089398 -0.5180662438 0.0000702634
C  0.5607003612 0.5180637669 0.0000732158
C  1.9379739984 -0.1336611288 -0.0000656168
H  -2.0642392426 0.7583956405 -0.8818729922
H  -2.0643141479 0.7586344707 0.8815678376
H  -2.7203312561 -0.6218597970 -0.0000089337
H  -0.4608427225 -1.1556812969 -0.8815236033
H  -0.4609922303 -1.1556319058 0.8817218639
H  0.4609352217 1.1555595766 0.8817666733
H  0.4608397904 1.1557450104 -0.8814794377
H  2.7203712139 0.6218418467 0.0000275567
H  2.0642656048 -0.7583808544 -0.8818652504
H  2.0643183825 -0.7586835900 0.8815176737
