  8
         -7.33637067
 C         -0.7607296061       -0.0000153537       -0.0000155923
 C          0.7607364206       -0.0000051622       -0.0000010785
 H         -1.1438302573       -0.8804944781       -0.5111353899
 H         -1.1436922403        0.8831988431       -0.5066256517
 H         -1.1432893307       -0.0025692316        1.0182299722
 H          1.1435497052        0.8806284940        0.5111835511
 H          1.1434239727        0.0026177178       -1.0181501505
 H          1.1437569485       -0.8831368757        0.5066963197
