  14
        -13.66512777
 C         -1.9379057168        0.1336549029       -0.0000107947
 C         -0.5606687812       -0.5180864857        0.0000153613
 C          0.5606695936        0.5181072130        0.0000127896
 C          1.9379098826       -0.1336765166       -0.0000081600
 H         -2.0641949336        0.7584674235       -0.8817193088
 H         -2.0642381577        0.7585822915        0.8816291543
 H         -2.7202785597       -0.6218539171       -0.0000036578
 H         -0.4608673425       -1.1556801290       -0.8816140804
 H         -0.4609088428       -1.1556413029        0.8816753400
 H          0.4608343107        1.1557045530        0.8816342137
 H          0.4608411004        1.1556672876       -0.8816341234
 H          2.0642671820       -0.7585706105        0.8816614106
 H          2.7202676575        0.6218614290       -0.0000225066
 H          2.0642182654       -0.7585264630       -0.8817160246
