  14
        -13.66512777
 C         -1.9379057168        0.1336549029       -0.0000107947
 C         -0.5606687812       -0.5180864857        0.0000153613
 C          0.5606695936        0.5181072130        0.0000127896
 C          1.9379098826       -0.1336765166       -0.0000081600
 H         -2.0641949336        0.7584674235       -0.8817193088
 H         -2.0642381577        0.7585822915        0.8816291543
 H         -2.7202785597       -0.6218539171       -0.0000036578
 H         -0.4608673425       -1.1556801290       -0.8816140804
 H         -0.4609088428       -1.1556413029        0.8816753400
 H          0.4608343107        1.1557045530        0.8816342137
 H          0.4608411004        1.1556672876       -0.8816341234
 H          2.0642671820       -0.7585706105        0.8816614106
 H          2.7202676575        0.6218614290       -0.0000225066
 H          2.0642182654       -0.7585264630       -0.8817160246
  14
        -13.66417744
 C         -1.5706525210        0.0341297337       -0.5634161659
 C         -0.6719909016       -0.3645913901        0.6014175011
 C          0.6719928952        0.3646947105        0.6013719094
 C          1.5706511248       -0.0342218442       -0.5634007240
 H         -1.1295979217       -0.2544793408       -1.5138243330
 H         -1.7299039683        1.1105208858       -0.5694863066
 H         -2.5386478651       -0.4547950872       -0.4779493530
 H         -0.4955294856       -1.4423671201        0.5709432468
 H         -1.1894850197       -0.1413956062        1.5377569780
 H          1.1894832142        0.1416519796        1.5377532459
 H          0.4955293261        1.4424668689        0.5707107973
 H          2.5386536226        0.4547087375       -0.4780534523
 H          1.1295987222        0.2541572515       -1.5138730744
 H          1.7298922564       -1.1106021476       -0.5692748906
