  8
  -7.3363706700000000       0.33334038795312415      !
 C         -0.7607296061       -0.0000153537       -0.0000155923
 C          0.7607364206       -0.0000051622       -0.0000010785
 H         -1.1438302573       -0.8804944781       -0.5111353899
 H         -1.1436922403        0.8831988431       -0.5066256517
 H         -1.1432893307       -0.0025692316        1.0182299722
 H          1.1435497052        0.8806284940        0.5111835511
 H          1.1434239727        0.0026177178       -1.0181501505
 H          1.1437569485       -0.8831368757        0.5066963197
  8
  -7.3363706600000000       0.33333686058101891      !
 C         -0.7606710790       -0.0000190474       -0.0000251683
 C          0.7606712235       -0.0000088566       -0.0000106557
 H         -1.1433993725       -0.1698717226       -1.0040592355
 H         -1.1431888274        0.9544942340        0.3547300778
 H         -1.1437808152       -0.7842461272        0.6492678220
 H          1.1433636943       -0.9546412219       -0.3545093868
 H          1.1432015366        0.1700702762        1.0039726586
 H          1.1438020621        0.7845270689       -0.6489750536
  8
  -7.3363706200000003       0.33332275146585688      !
 C         -0.7607154963        0.0000150495        0.0000270831
 C          0.7607091873        0.0000252408        0.0000415965
 H         -1.1427366128       -0.7342860791        0.7055519500
 H         -1.1437195321       -0.2444069952       -0.9881790916
 H         -1.1444095060        0.9779337184        0.2826502374
 H          1.1438362490       -0.9777971644       -0.2831667811
 H          1.1443055731        0.2441923276        0.9882295573
 H          1.1427990068        0.7338840896       -0.7059042650
